# Input variables.
variable ts     equal 2       # timestep
variable tf     equal 398.15  # equilibrium temperature
variable p      equal 1       # equilibrium pressure
variable cl     equal 400     # correlation length for averaging
variable s      equal 5     # sample interval for averaging
variable prod   equal 20000   # Production steps

# PBC
boundary p p p

# Force field setup.
units           real
atom_style      full
bond_style      harmonic
angle_style     harmonic
dihedral_style  harmonic
improper_style  harmonic
pair_style      lj/cut/coul/long 13.
special_bonds lj 0.0 0.0 0.5 coul 0.0 0.0 1.0 angle yes dihedral yes

# Neighbour list.
neighbor        2.0 bin
neigh_modify    check yes

# Create a random seed.
shell dd if=/dev/urandom of=/tmp/random_number count=2 bs=1
shell od -An -t dI /tmp/random_number > /tmp/seed
variable s1 file /tmp/seed
variable s2 equal abs(v_s1)
Seed 39502
variable r1 equal random(10000,1000000,39502)

# ----------------- Atom Definition Section -----------------

read_data "water_aa.data"
Reading data file ...
  orthogonal box = (0 0 0) to (12.41 12.41 12.41)
  reading atoms ...
  192 atoms
  scanning bonds ...
  scanning angles ...
  reading bonds ...
  128 bonds
  reading angles ...
  64 angles
Finding 1-2 1-3 1-4 neighbors ...
     2 = max # of 1-2 neighbors
     1 = max # of 1-3 neighbors
     1 = max # of 1-4 neighbors
     2 = max # of special neighbors

# ----------------- Settings Section -----------------

include "water_aa.in.settings"
mass 1  15.9994
mass 2   1.0079

pair_coeff  1 1 0.102 3.188
pair_coeff  2 2 0.0 0.0

bond_coeff  1  450.0 0.9572
angle_coeff 1  55.0 104.52
# Force field setup.
kspace_style    pppm 1e-4

# ----------------- Run Section -----------------

include "water_aa.in.run"
variable r format r1 %.0f
velocity all create 398.15 $r dist gaussian
velocity all create 398.15 349980 dist gaussian

# Apply the SHAKE algorithm to hydrogen atoms.
fix SHK all shake .0001 10 0 m 1.0079 a 1
       0 = # of size 2 clusters
       0 = # of size 3 clusters
       0 = # of size 4 clusters
      64 = # of frozen angles
  find clusters CPU = 0.000 seconds

# Derived variables.
# thermo interval.
variable d       equal 400*$s
variable d       equal 400*5
# dump interval ("sample interval" frames).
variable dcycle  equal 20000/$s
variable dcycle  equal 20000/5
variable tcouple equal 2*100
variable pcouple equal 2*1000

# Output.
thermo          $d
thermo          2000
thermo_style custom step etotal evdwl ecoul elong ebond eangle edihed eimp ke pe temp press vol density cpu
thermo_modify flush yes
# Trajectory.
dump TRJ all dcd 4000 water_aa.dcd
dump_modify TRJ unwrap yes

# Thermalisation and relaxation, NPT ensemble.
timestep 	 2
fix             NPH all nph iso 1 1 2000
variable r format r1 %.0f
fix             TEMP all langevin 398.15 398.15 200 $r
fix             TEMP all langevin 398.15 398.15 200 883244
run    20000
PPPM initialization ...
  G vector (1/distance) = 0.21537857
  grid = 6 6 6
  stencil order = 5
  estimated absolute RMS force accuracy = 0.011200469
  estimated relative force accuracy = 3.3729881e-05
  3d grid and FFT values/proc = 1331 216
Generated 1 of 1 mixed pair_coeff terms from geometric mixing rule
  update every 1 steps, delay 10 steps, check yes
Step         TotEng         E_vdwl         E_coul         E_long         E_bond        E_angle        E_dihed        E_impro         KinEng         PotEng          Temp          Press          Volume        Density          CPU
0  -419.70623      89.375432      1931.495      -2667.2573      0              0              0              0              226.68062     -646.38684      598.79252     -7636.8547      1911.2405      1.0017348      0
Averages over the last 6 of 11 rows, steps 10000 to 20000:
TotEng E_vdwl E_coul E_long E_bond E_angle E_dihed E_impro KinEng PotEng Temp Press Volume Density
-401.034 104.572 2016.99 -2667.32 0 0 0 0 144.728 -545.762 382.309 -727.072 2143.86 0.896204
Loop time of 23.9422 on 1 procs for 20000 steps with 192 atoms
